Circuit: * C:\Users\leank\OneDrive - tresdimensiones\Documentos\EAGLE\projects\VDA\Design\Draft1.asc

Direct Newton iteration for .op point succeeded.

Date: Wed May 28 10:19:56 2025
Total elapsed time: 0.085 seconds.

tnom = 27
temp = 27
method = modified trap
totiter = 2173
traniter = 2170
tranpoints = 1086
accept = 1084
rejected = 2
matrix size = 3
fillins = 0
solver = Normal
Matrix Compiler1: off  [0.0]/0.0/0.0
Matrix Compiler2: off  [0.0]/0.0/0.1

