Circuit: * C:\Users\leank\OneDrive - tresdimensiones\Documentos\EAGLE\projects\VDA\Design\VGA.asc

WARNING: Less than two connections to node NC_01.  This node is used by Q:U1:N11.
Direct Newton iteration for .op point succeeded.
Ignoring empty pin current: Ix(u2:1)
Ignoring empty pin current: Ix(u2:2)
Ignoring empty pin current: Ix(u2:1)
Ignoring empty pin current: Ix(u2:2)

Date: Fri May 09 17:21:57 2025
Total elapsed time: 1.579 seconds.

tnom = 27
temp = 27
method = modified trap
totiter = 34206
traniter = 34156
tranpoints = 15586
accept = 10278
rejected = 5308
matrix size = 27
fillins = 8
solver = Normal
Thread vector: 26.0/21.5[2] 6.7/4.1[2] 3.8/3.1[2] 0.1/1.3[1]  2592/500
Matrix Compiler1: 2.29 KB object code size  0.7/0.3/[0.2]
Matrix Compiler2: 2.58 KB object code size  0.3/0.4/[0.2]

