Circuit: * C:\Users\leank\OneDrive - tresdimensiones\Documentos\EAGLE\projects\VDA\Design\VGA.asc

R5: both pins shorted together -- ignoring.
Limiting fall time of source v4 to 1.95399e-015
Direct Newton iteration for .op point succeeded.

Date: Wed Jan 01 12:19:56 2025
Total elapsed time: 0.199 seconds.

tnom = 27
temp = 27
method = modified trap
totiter = 7881
traniter = 7831
tranpoints = 3909
accept = 2457
rejected = 1452
matrix size = 23
fillins = 10
solver = Normal
Matrix Compiler1: 1.74 KB object code size  0.6/0.6/[0.2]
Matrix Compiler2:     176 opcodes  2.5/[0.5]/0.7

