Circuit: * C:\Users\leank\OneDrive - tresdimensiones\Documentos\EAGLE\projects\VDA\Design\LM13700-spice-model-master\Draft1.asc

Limiting fall time of source v7 to 0.9
Direct Newton iteration failed to find .op point.  (Use ".option noopiter" to skip.)
Starting Gmin stepping
Gmin = 10
Gmin = 1.07374
vernier = 0.5
vernier = 0.25
vernier = 0.125
vernier = 0.0625
vernier = 0.03125
Gmin = 1.0412
vernier = 0.015625
vernier = 0.0078125
Gmin = 1.0132
vernier = 0.00390625
vernier = 0.00195313
Gmin = 1.00827
vernier = 0.00260417
vernier = 0.00130208
Gmin = 1.00515
vernier = 0.000651042
vernier = 0.000868055
vernier = 0.000434028
Gmin = 1.00434
vernier = 0.000578703
vernier = 0.000434027
Gmin = 1.00339
Gmin = 0
Gmin stepping failed

Starting source stepping with srcstepmethod=0
Source Step = 3.0303%
Source Step = 33.3333%
Source Step = 63.6364%
Source Step = 93.9394%
Source stepping succeeded in finding the operating point.


Date: Mon Jan 13 18:22:00 2025
Total elapsed time: 1.419 seconds.

tnom = 27
temp = 27
method = modified trap
totiter = 7604
traniter = 2752
tranpoints = 1338
accept = 1299
rejected = 39
matrix size = 62
fillins = 69
solver = Normal
Thread vector: 25.0/15.7[4] 9.3/5.9[4] 4.6/5.0[1] 0.2/3.0[1]  2592/500
Matrix Compiler1: 5.16 KB object code size  2.4/1.4/[0.4]
Matrix Compiler2: 6.77 KB object code size  1.9/3.2/[0.5]

