Circuit: * C:\Users\leank\OneDrive - tresdimensiones\Documentos\EAGLE\projects\VDA\Design\LM13700-spice-model-master\Draft3.asc


Date: Wed Feb 19 13:02:17 2025
Total elapsed time: 0.090 seconds.

tnom = 27
temp = 27
method = trap
totiter = 0
traniter = 0
tranpoints = 0
accept = 0
rejected = 0
matrix size = 4
fillins = 0
solver = Normal

